<?xml version="1.0" encoding="UTF-8"?>

<!-- generated on 2025-04-19 12:50:29 by Eclipse SUMO netconvert Version 1.21.0
<netconvertConfiguration xmlns:xsi="http://www.w3.org/2001/XMLSchema-instance" xsi:noNamespaceSchemaLocation="http://sumo.dlr.de/xsd/netconvertConfiguration.xsd">

    <input>
        <node-files value="nodes.nod.xml"/>
        <edge-files value="edges.edg.xml"/>
        <connection-files value="connections.con.xml"/>
    </input>

    <output>
        <output-file value="network.net.xml"/>
    </output>

    <processing>
        <lefthand value="true"/>
    </processing>

</netconvertConfiguration>
-->

<net version="1.20" junctionCornerDetail="5" lefthand="true" limitTurnSpeed="5.50" xmlns:xsi="http://www.w3.org/2001/XMLSchema-instance" xsi:noNamespaceSchemaLocation="http://sumo.dlr.de/xsd/net_file.xsd">

    <location netOffset="1000.00,1000.00" convBoundary="0.00,-0.00,2000.00,2000.00" origBoundary="-1000.00,-1000.00,1000.00,1000.00" projParameter="!"/>

    <edge id=":0_0" function="internal">
        <lane id=":0_0_0" index="0" allow="bus" speed="6.51" length="9.03" shape="988.80,989.60 988.45,992.05 987.40,993.80 985.65,994.85 983.20,995.20"/>
        <lane id=":0_0_1" index="1" allow="bus" speed="7.33" length="11.73" shape="988.80,989.60 988.45,993.45 987.40,996.20 985.65,997.85 983.20,998.40"/>
    </edge>
    <edge id=":0_2" function="internal">
        <lane id=":0_2_0" index="0" allow="bus" speed="13.89" length="20.80" shape="988.80,989.60 988.80,1010.40"/>
    </edge>
    <edge id=":0_3" function="internal">
        <lane id=":0_3_0" index="0" speed="7.33" length="2.51" shape="992.00,989.60 991.45,992.05"/>
        <lane id=":0_3_1" index="1" speed="8.00" length="4.07" shape="992.00,989.60 991.45,993.45 991.36,993.60"/>
    </edge>
    <edge id=":0_5" function="internal">
        <lane id=":0_5_0" index="0" speed="13.89" length="20.80" shape="992.00,989.60 992.00,1010.40"/>
        <lane id=":0_5_1" index="1" speed="13.89" length="20.80" shape="995.20,989.60 995.20,1010.40"/>
        <lane id=":0_5_2" index="2" speed="13.89" length="20.80" shape="998.40,989.60 998.40,1010.40"/>
    </edge>
    <edge id=":0_26" function="internal">
        <lane id=":0_26_0" index="0" speed="7.33" length="9.21" shape="991.45,992.05 989.80,993.80 987.05,994.85 983.20,995.20"/>
    </edge>
    <edge id=":0_27" function="internal">
        <lane id=":0_27_0" index="0" speed="8.00" length="10.13" shape="991.36,993.60 989.80,996.20 987.05,997.85 983.20,998.40"/>
    </edge>
    <edge id=":0_8" function="internal">
        <lane id=":0_8_0" index="0" speed="6.51" length="9.03" shape="1016.80,995.20 1014.35,994.85 1012.60,993.80 1011.55,992.05 1011.20,989.60"/>
        <lane id=":0_8_1" index="1" speed="7.33" length="11.73" shape="1016.80,995.20 1012.95,994.85 1010.20,993.80 1008.55,992.05 1008.00,989.60"/>
    </edge>
    <edge id=":0_10" function="internal">
        <lane id=":0_10_0" index="0" speed="5.58" length="6.63" shape="1016.80,995.20 1013.20,997.60 1012.17,999.66"/>
    </edge>
    <edge id=":0_11" function="internal">
        <lane id=":0_11_0" index="0" disallow="bus" speed="7.33" length="11.73" shape="1016.80,998.40 1014.35,997.85 1012.60,996.20 1011.55,993.45 1011.20,989.60"/>
        <lane id=":0_11_1" index="1" disallow="bus" speed="8.00" length="14.19" shape="1016.80,998.40 1012.95,997.85 1010.20,996.20 1008.55,993.45 1008.00,989.60"/>
    </edge>
    <edge id=":0_13" function="internal">
        <lane id=":0_13_0" index="0" disallow="bus" speed="3.65" length="1.44" shape="1016.80,998.40 1015.60,999.20"/>
    </edge>
    <edge id=":0_28" function="internal">
        <lane id=":0_28_0" index="0" speed="5.58" length="7.39" shape="1012.17,999.66 1012.00,1000.00 1013.20,1002.40 1016.80,1004.80"/>
    </edge>
    <edge id=":0_29" function="internal">
        <lane id=":0_29_0" index="0" disallow="bus" speed="3.65" length="3.23" shape="1015.60,999.20 1015.20,1000.00 1015.60,1000.80 1016.80,1001.60"/>
    </edge>
    <edge id=":0_14" function="internal">
        <lane id=":0_14_0" index="0" allow="bus" speed="6.51" length="9.03" shape="1011.20,1010.40 1011.55,1007.95 1012.60,1006.20 1014.35,1005.15 1016.80,1004.80"/>
        <lane id=":0_14_1" index="1" allow="bus" speed="7.33" length="11.73" shape="1011.20,1010.40 1011.55,1006.55 1012.60,1003.80 1014.35,1002.15 1016.80,1001.60"/>
    </edge>
    <edge id=":0_16" function="internal">
        <lane id=":0_16_0" index="0" allow="bus" speed="13.89" length="20.80" shape="1011.20,1010.40 1011.20,989.60"/>
    </edge>
    <edge id=":0_17" function="internal">
        <lane id=":0_17_0" index="0" speed="7.33" length="2.51" shape="1008.00,1010.40 1008.55,1007.95"/>
        <lane id=":0_17_1" index="1" speed="8.00" length="4.07" shape="1008.00,1010.40 1008.55,1006.55 1008.64,1006.40"/>
    </edge>
    <edge id=":0_19" function="internal">
        <lane id=":0_19_0" index="0" speed="13.89" length="20.80" shape="1008.00,1010.40 1008.00,989.60"/>
        <lane id=":0_19_1" index="1" speed="13.89" length="20.80" shape="1004.80,1010.40 1004.80,989.60"/>
        <lane id=":0_19_2" index="2" speed="13.89" length="20.80" shape="1001.60,1010.40 1001.60,989.60"/>
    </edge>
    <edge id=":0_30" function="internal">
        <lane id=":0_30_0" index="0" speed="7.33" length="9.21" shape="1008.55,1007.95 1010.20,1006.20 1012.95,1005.15 1016.80,1004.80"/>
    </edge>
    <edge id=":0_31" function="internal">
        <lane id=":0_31_0" index="0" speed="8.00" length="10.13" shape="1008.64,1006.40 1010.20,1003.80 1012.95,1002.15 1016.80,1001.60"/>
    </edge>
    <edge id=":0_22" function="internal">
        <lane id=":0_22_0" index="0" speed="6.51" length="9.03" shape="983.20,1004.80 985.65,1005.15 987.40,1006.20 988.45,1007.95 988.80,1010.40"/>
        <lane id=":0_22_1" index="1" speed="7.33" length="11.73" shape="983.20,1004.80 987.05,1005.15 989.80,1006.20 991.45,1007.95 992.00,1010.40"/>
        <lane id=":0_22_2" index="2" speed="7.33" length="11.73" shape="983.20,1001.60 985.65,1002.15 987.40,1003.80 988.45,1006.55 988.80,1010.40"/>
        <lane id=":0_22_3" index="3" speed="8.00" length="14.19" shape="983.20,1001.60 987.05,1002.15 989.80,1003.80 991.45,1006.55 992.00,1010.40"/>
    </edge>
    <edge id=":east_0" function="internal">
        <lane id=":east_0_0" index="0" disallow="bus" speed="3.65" length="4.67" shape="2000.00,1001.60 2001.20,1000.80 2001.60,1000.00 2001.20,999.20 2000.00,998.40"/>
    </edge>
    <edge id=":north_0" function="internal">
        <lane id=":north_0_0" index="0" speed="3.65" length="4.67" shape="998.40,2000.00 999.20,2001.20 1000.00,2001.60 1000.80,2001.20 1001.60,2000.00"/>
    </edge>
    <edge id=":south_0" function="internal">
        <lane id=":south_0_0" index="0" speed="3.65" length="4.67" shape="1001.60,-0.00 1000.80,-1.20 1000.00,-1.60 999.20,-1.20 998.40,-0.00"/>
    </edge>
    <edge id=":west_0" function="internal">
        <lane id=":west_0_0" index="0" speed="3.65" length="4.67" shape="0.00,998.40 -1.20,999.20 -1.60,1000.00 -1.20,1000.80 0.00,1001.60"/>
    </edge>

    <edge id="0_to_east" from="0" to="east" priority="-1">
        <lane id="0_to_east_0" index="0" speed="13.89" length="983.20" shape="1016.80,1004.80 2000.00,1004.80"/>
        <lane id="0_to_east_1" index="1" speed="13.89" length="983.20" shape="1016.80,1001.60 2000.00,1001.60"/>
    </edge>
    <edge id="0_to_north" from="0" to="north" priority="-1">
        <lane id="0_to_north_0" index="0" speed="13.89" length="989.60" shape="988.80,1010.40 988.80,2000.00"/>
        <lane id="0_to_north_1" index="1" speed="13.89" length="989.60" shape="992.00,1010.40 992.00,2000.00"/>
        <lane id="0_to_north_2" index="2" speed="13.89" length="989.60" shape="995.20,1010.40 995.20,2000.00"/>
        <lane id="0_to_north_3" index="3" speed="13.89" length="989.60" shape="998.40,1010.40 998.40,2000.00"/>
    </edge>
    <edge id="0_to_south" from="0" to="south" priority="-1">
        <lane id="0_to_south_0" index="0" speed="13.89" length="989.60" shape="1011.20,989.60 1011.20,-0.00"/>
        <lane id="0_to_south_1" index="1" speed="13.89" length="989.60" shape="1008.00,989.60 1008.00,-0.00"/>
        <lane id="0_to_south_2" index="2" speed="13.89" length="989.60" shape="1004.80,989.60 1004.80,-0.00"/>
        <lane id="0_to_south_3" index="3" speed="13.89" length="989.60" shape="1001.60,989.60 1001.60,-0.00"/>
    </edge>
    <edge id="0_to_west" from="0" to="west" priority="-1">
        <lane id="0_to_west_0" index="0" speed="13.89" length="983.20" shape="983.20,995.20 0.00,995.20"/>
        <lane id="0_to_west_1" index="1" speed="13.89" length="983.20" shape="983.20,998.40 0.00,998.40"/>
    </edge>
    <edge id="east_to_0" from="east" to="0" priority="-1">
        <lane id="east_to_0_0" index="0" speed="13.89" length="983.20" shape="2000.00,995.20 1016.80,995.20"/>
        <lane id="east_to_0_1" index="1" disallow="bus" speed="13.89" length="983.20" shape="2000.00,998.40 1016.80,998.40"/>
    </edge>
    <edge id="north_to_0" from="north" to="0" priority="-1">
        <lane id="north_to_0_0" index="0" allow="bus" speed="13.89" length="989.60" shape="1011.20,2000.00 1011.20,1010.40"/>
        <lane id="north_to_0_1" index="1" speed="13.89" length="989.60" shape="1008.00,2000.00 1008.00,1010.40"/>
        <lane id="north_to_0_2" index="2" speed="13.89" length="989.60" shape="1004.80,2000.00 1004.80,1010.40"/>
        <lane id="north_to_0_3" index="3" speed="13.89" length="989.60" shape="1001.60,2000.00 1001.60,1010.40"/>
    </edge>
    <edge id="south_to_0" from="south" to="0" priority="-1">
        <lane id="south_to_0_0" index="0" allow="bus" speed="13.89" length="989.60" shape="988.80,-0.00 988.80,989.60"/>
        <lane id="south_to_0_1" index="1" speed="13.89" length="989.60" shape="992.00,-0.00 992.00,989.60"/>
        <lane id="south_to_0_2" index="2" speed="13.89" length="989.60" shape="995.20,-0.00 995.20,989.60"/>
        <lane id="south_to_0_3" index="3" speed="13.89" length="989.60" shape="998.40,-0.00 998.40,989.60"/>
    </edge>
    <edge id="west_to_0" from="west" to="0" priority="-1">
        <lane id="west_to_0_0" index="0" speed="13.89" length="983.20" shape="0.00,1004.80 983.20,1004.80"/>
        <lane id="west_to_0_1" index="1" speed="13.89" length="983.20" shape="0.00,1001.60 983.20,1001.60"/>
    </edge>

    <tlLogic id="0" type="static" programID="0" offset="0">
        <phase duration="42" state="GGGggGGGrrrrrrGGGggGGGrrrr"/>
        <phase duration="3"  state="GGyggyyyrrrrrrGGyggyyyrrrr"/>
        <phase duration="42" state="GGrggrrrGGggggGGrggrrrGGgg"/>
        <phase duration="3"  state="GGrggrrryyyyyyGGrggrrryyyy"/>
    </tlLogic>

    <junction id="0" type="traffic_light" x="1000.00" y="1000.00" incLanes="south_to_0_0 south_to_0_1 south_to_0_2 south_to_0_3 east_to_0_0 east_to_0_1 north_to_0_0 north_to_0_1 north_to_0_2 north_to_0_3 west_to_0_0 west_to_0_1" intLanes=":0_0_0 :0_0_1 :0_2_0 :0_26_0 :0_27_0 :0_5_0 :0_5_1 :0_5_2 :0_8_0 :0_8_1 :0_28_0 :0_11_0 :0_11_1 :0_29_0 :0_14_0 :0_14_1 :0_16_0 :0_30_0 :0_31_0 :0_19_0 :0_19_1 :0_19_2 :0_22_0 :0_22_1 :0_22_2 :0_22_3" shape="987.20,989.60 1012.80,989.60 1013.24,991.82 1013.80,992.60 1014.58,993.16 1015.58,993.49 1016.80,993.60 1016.80,1006.40 1014.58,1006.84 1013.80,1007.40 1013.24,1008.18 1012.91,1009.18 1012.80,1010.40 987.20,1010.40 986.76,1008.18 986.20,1007.40 985.42,1006.84 984.42,1006.51 983.20,1006.40 983.20,993.60 985.42,993.16 986.20,992.60 986.76,991.82 987.09,990.82">
        <request index="0"  response="00000000000000000000000000" foes="00000000000000000000001000" cont="0"/>
        <request index="1"  response="00000000000000000000000000" foes="00000000000000000000011000" cont="0"/>
        <request index="2"  response="00000000000000000000000000" foes="11110000000000000000011000" cont="0"/>
        <request index="3"  response="00000000000000000000000111" foes="00000000000000000000000111" cont="1"/>
        <request index="4"  response="00000000000000000000000110" foes="00000000000000000000000110" cont="1"/>
        <request index="5"  response="00000000000000000000000000" foes="11110000000000000000000000" cont="0"/>
        <request index="6"  response="00000000000000000000000000" foes="11110000000000000000000000" cont="0"/>
        <request index="7"  response="00000000000000000000000000" foes="11110000000000000000000000" cont="0"/>
        <request index="8"  response="00001110010000000000000000" foes="00001110010000100000000000" cont="0"/>
        <request index="9"  response="00001110010000000000000000" foes="00001110010001100000000000" cont="0"/>
        <request index="10" response="00000001101100000000000000" foes="00000001101100000000000000" cont="1"/>
        <request index="11" response="00001110010000001100000000" foes="00001110010000001100000000" cont="0"/>
        <request index="12" response="00001110010000001000000000" foes="00001110010000001000000000" cont="0"/>
        <request index="13" response="00000001101100000000000000" foes="00000001101100000000000000" cont="1"/>
        <request index="14" response="00000000000000000000000000" foes="00000000100010010000000000" cont="0"/>
        <request index="15" response="00000000000000000000000000" foes="00000001100010010000000000" cont="0"/>
        <request index="16" response="00000000000000000000000000" foes="00000001100001101100000000" cont="0"/>
        <request index="17" response="00000000011100000000000000" foes="00000000011110010000000000" cont="1"/>
        <request index="18" response="00000000011000000000000000" foes="00000000011010010000000000" cont="1"/>
        <request index="19" response="00000000000000000000000000" foes="00000000000001101100000000" cont="0"/>
        <request index="20" response="00000000000000000000000000" foes="00000000000001101100000000" cont="0"/>
        <request index="21" response="00000000000000000000000000" foes="00000000000001101100000000" cont="0"/>
        <request index="22" response="00000000000000000011100100" foes="01000000000000000011100100" cont="0"/>
        <request index="23" response="00000000000000000011100100" foes="11000000000000000011100100" cont="0"/>
        <request index="24" response="00110000000000000011100100" foes="00110000000000000011100100" cont="0"/>
        <request index="25" response="00100000000000000011100100" foes="00100000000000000011100100" cont="0"/>
    </junction>
    <junction id="east" type="priority" x="2000.00" y="1000.00" incLanes="0_to_east_0 0_to_east_1" intLanes=":east_0_0" shape="2000.00,1000.00 2000.00,1006.40 2000.00,1000.00">
        <request index="0" response="0" foes="0" cont="0"/>
    </junction>
    <junction id="north" type="priority" x="1000.00" y="2000.00" incLanes="0_to_north_0 0_to_north_1 0_to_north_2 0_to_north_3" intLanes=":north_0_0" shape="1000.00,2000.00 987.20,2000.00 1000.00,2000.00">
        <request index="0" response="0" foes="0" cont="0"/>
    </junction>
    <junction id="south" type="priority" x="1000.00" y="-0.00" incLanes="0_to_south_0 0_to_south_1 0_to_south_2 0_to_south_3" intLanes=":south_0_0" shape="1000.00,-0.00 1012.80,-0.00 1000.00,-0.00">
        <request index="0" response="0" foes="0" cont="0"/>
    </junction>
    <junction id="west" type="priority" x="0.00" y="1000.00" incLanes="0_to_west_0 0_to_west_1" intLanes=":west_0_0" shape="0.00,1000.00 0.00,993.60 0.00,1000.00">
        <request index="0" response="0" foes="0" cont="0"/>
    </junction>

    <junction id=":0_26_0" type="internal" x="991.45" y="992.05" incLanes=":0_3_0 south_to_0_0" intLanes=":0_0_0 :0_0_1 :0_2_0"/>
    <junction id=":0_27_0" type="internal" x="991.36" y="993.60" incLanes=":0_3_1 south_to_0_0" intLanes=":0_0_1 :0_2_0"/>
    <junction id=":0_28_0" type="internal" x="1012.17" y="999.66" incLanes=":0_10_0 north_to_0_0 north_to_0_1" intLanes=":0_14_0 :0_14_1 :0_17_0 :0_17_1"/>
    <junction id=":0_29_0" type="internal" x="1015.60" y="999.20" incLanes=":0_13_0 north_to_0_0 north_to_0_1" intLanes=":0_14_0 :0_14_1 :0_17_0 :0_17_1"/>
    <junction id=":0_30_0" type="internal" x="1008.55" y="1007.95" incLanes=":0_17_0 north_to_0_0" intLanes=":0_10_0 :0_13_0 :0_14_0 :0_14_1 :0_16_0"/>
    <junction id=":0_31_0" type="internal" x="1008.64" y="1006.40" incLanes=":0_17_1 north_to_0_0" intLanes=":0_10_0 :0_13_0 :0_14_1 :0_16_0"/>

    <connection from="0_to_east" to="east_to_0" fromLane="1" toLane="1" via=":east_0_0" dir="T" state="M"/>
    <connection from="0_to_north" to="north_to_0" fromLane="3" toLane="3" via=":north_0_0" dir="T" state="M"/>
    <connection from="0_to_south" to="south_to_0" fromLane="3" toLane="3" via=":south_0_0" dir="T" state="M"/>
    <connection from="0_to_west" to="west_to_0" fromLane="1" toLane="1" via=":west_0_0" dir="T" state="M"/>
    <connection from="east_to_0" to="0_to_south" fromLane="0" toLane="0" via=":0_8_0" tl="0" linkIndex="8" dir="l" state="o"/>
    <connection from="east_to_0" to="0_to_south" fromLane="0" toLane="1" via=":0_8_1" tl="0" linkIndex="9" dir="l" state="o"/>
    <connection from="east_to_0" to="0_to_east" fromLane="0" toLane="0" via=":0_10_0" tl="0" linkIndex="10" dir="T" state="o"/>
    <connection from="east_to_0" to="0_to_south" fromLane="1" toLane="0" via=":0_11_0" tl="0" linkIndex="11" dir="l" state="o"/>
    <connection from="east_to_0" to="0_to_south" fromLane="1" toLane="1" via=":0_11_1" tl="0" linkIndex="12" dir="l" state="o"/>
    <connection from="east_to_0" to="0_to_east" fromLane="1" toLane="1" via=":0_13_0" tl="0" linkIndex="13" dir="T" state="o"/>
    <connection from="north_to_0" to="0_to_east" fromLane="0" toLane="0" via=":0_14_0" tl="0" linkIndex="14" dir="l" state="O"/>
    <connection from="north_to_0" to="0_to_east" fromLane="0" toLane="1" via=":0_14_1" tl="0" linkIndex="15" dir="l" state="O"/>
    <connection from="north_to_0" to="0_to_south" fromLane="0" toLane="0" via=":0_16_0" tl="0" linkIndex="16" dir="s" state="O"/>
    <connection from="north_to_0" to="0_to_east" fromLane="1" toLane="0" via=":0_17_0" tl="0" linkIndex="17" dir="l" state="O"/>
    <connection from="north_to_0" to="0_to_east" fromLane="1" toLane="1" via=":0_17_1" tl="0" linkIndex="18" dir="l" state="O"/>
    <connection from="north_to_0" to="0_to_south" fromLane="1" toLane="1" via=":0_19_0" tl="0" linkIndex="19" dir="s" state="O"/>
    <connection from="north_to_0" to="0_to_south" fromLane="2" toLane="2" via=":0_19_1" tl="0" linkIndex="20" dir="s" state="O"/>
    <connection from="north_to_0" to="0_to_south" fromLane="3" toLane="3" via=":0_19_2" tl="0" linkIndex="21" dir="s" state="O"/>
    <connection from="south_to_0" to="0_to_west" fromLane="0" toLane="0" via=":0_0_0" tl="0" linkIndex="0" dir="l" state="O"/>
    <connection from="south_to_0" to="0_to_west" fromLane="0" toLane="1" via=":0_0_1" tl="0" linkIndex="1" dir="l" state="O"/>
    <connection from="south_to_0" to="0_to_north" fromLane="0" toLane="0" via=":0_2_0" tl="0" linkIndex="2" dir="s" state="O"/>
    <connection from="south_to_0" to="0_to_west" fromLane="1" toLane="0" via=":0_3_0" tl="0" linkIndex="3" dir="l" state="O"/>
    <connection from="south_to_0" to="0_to_west" fromLane="1" toLane="1" via=":0_3_1" tl="0" linkIndex="4" dir="l" state="O"/>
    <connection from="south_to_0" to="0_to_north" fromLane="1" toLane="1" via=":0_5_0" tl="0" linkIndex="5" dir="s" state="O"/>
    <connection from="south_to_0" to="0_to_north" fromLane="2" toLane="2" via=":0_5_1" tl="0" linkIndex="6" dir="s" state="O"/>
    <connection from="south_to_0" to="0_to_north" fromLane="3" toLane="3" via=":0_5_2" tl="0" linkIndex="7" dir="s" state="O"/>
    <connection from="west_to_0" to="0_to_north" fromLane="0" toLane="0" via=":0_22_0" tl="0" linkIndex="22" dir="l" state="o"/>
    <connection from="west_to_0" to="0_to_north" fromLane="0" toLane="1" via=":0_22_1" tl="0" linkIndex="23" dir="l" state="o"/>
    <connection from="west_to_0" to="0_to_north" fromLane="1" toLane="0" via=":0_22_2" tl="0" linkIndex="24" dir="l" state="o"/>
    <connection from="west_to_0" to="0_to_north" fromLane="1" toLane="1" via=":0_22_3" tl="0" linkIndex="25" dir="l" state="o"/>

    <connection from=":0_0" to="0_to_west" fromLane="0" toLane="0" dir="l" state="M"/>
    <connection from=":0_0" to="0_to_west" fromLane="1" toLane="1" dir="l" state="M"/>
    <connection from=":0_2" to="0_to_north" fromLane="0" toLane="0" dir="s" state="M"/>
    <connection from=":0_3" to="0_to_west" fromLane="0" toLane="0" via=":0_26_0" dir="l" state="m"/>
    <connection from=":0_26" to="0_to_west" fromLane="0" toLane="0" dir="l" state="M"/>
    <connection from=":0_3" to="0_to_west" fromLane="1" toLane="1" via=":0_27_0" dir="l" state="m"/>
    <connection from=":0_27" to="0_to_west" fromLane="0" toLane="1" dir="l" state="M"/>
    <connection from=":0_5" to="0_to_north" fromLane="0" toLane="1" dir="s" state="M"/>
    <connection from=":0_5" to="0_to_north" fromLane="1" toLane="2" dir="s" state="M"/>
    <connection from=":0_5" to="0_to_north" fromLane="2" toLane="3" dir="s" state="M"/>
    <connection from=":0_8" to="0_to_south" fromLane="0" toLane="0" dir="l" state="M"/>
    <connection from=":0_8" to="0_to_south" fromLane="1" toLane="1" dir="l" state="M"/>
    <connection from=":0_10" to="0_to_east" fromLane="0" toLane="0" via=":0_28_0" dir="T" state="m"/>
    <connection from=":0_28" to="0_to_east" fromLane="0" toLane="0" dir="T" state="M"/>
    <connection from=":0_11" to="0_to_south" fromLane="0" toLane="0" dir="l" state="M"/>
    <connection from=":0_11" to="0_to_south" fromLane="1" toLane="1" dir="l" state="M"/>
    <connection from=":0_13" to="0_to_east" fromLane="0" toLane="1" via=":0_29_0" dir="T" state="m"/>
    <connection from=":0_29" to="0_to_east" fromLane="0" toLane="1" dir="T" state="M"/>
    <connection from=":0_14" to="0_to_east" fromLane="0" toLane="0" dir="l" state="M"/>
    <connection from=":0_14" to="0_to_east" fromLane="1" toLane="1" dir="l" state="M"/>
    <connection from=":0_16" to="0_to_south" fromLane="0" toLane="0" dir="s" state="M"/>
    <connection from=":0_17" to="0_to_east" fromLane="0" toLane="0" via=":0_30_0" dir="l" state="m"/>
    <connection from=":0_30" to="0_to_east" fromLane="0" toLane="0" dir="l" state="M"/>
    <connection from=":0_17" to="0_to_east" fromLane="1" toLane="1" via=":0_31_0" dir="l" state="m"/>
    <connection from=":0_31" to="0_to_east" fromLane="0" toLane="1" dir="l" state="M"/>
    <connection from=":0_19" to="0_to_south" fromLane="0" toLane="1" dir="s" state="M"/>
    <connection from=":0_19" to="0_to_south" fromLane="1" toLane="2" dir="s" state="M"/>
    <connection from=":0_19" to="0_to_south" fromLane="2" toLane="3" dir="s" state="M"/>
    <connection from=":0_22" to="0_to_north" fromLane="0" toLane="0" dir="l" state="M"/>
    <connection from=":0_22" to="0_to_north" fromLane="1" toLane="1" dir="l" state="M"/>
    <connection from=":0_22" to="0_to_north" fromLane="2" toLane="0" dir="l" state="M"/>
    <connection from=":0_22" to="0_to_north" fromLane="3" toLane="1" dir="l" state="M"/>
    <connection from=":east_0" to="east_to_0" fromLane="0" toLane="1" dir="T" state="M"/>
    <connection from=":north_0" to="north_to_0" fromLane="0" toLane="3" dir="T" state="M"/>
    <connection from=":south_0" to="south_to_0" fromLane="0" toLane="3" dir="T" state="M"/>
    <connection from=":west_0" to="west_to_0" fromLane="0" toLane="1" dir="T" state="M"/>

</net>
